# CIF file created by FINDSYM, version 7.1.3

data_findsym-output
_audit_creation_method FINDSYM

_cell_length_a     4.5342000000
_cell_length_b     4.5342000000
_cell_length_c     22.4270000000
_cell_angle_alpha  90.0000000000
_cell_angle_beta   90.0000000000
_cell_angle_gamma  90.0000000000
_cell_volume       461.0760121163

_space_group_magn.number_BNS "139.536"
_space_group_magn.name_UNI "I4'/m'm'm"
_space_group_magn.name_BNS "I4'/m'm'm"
_space_group_magn.number_OG "139.6.1184"
_space_group_magn.name_OG "I4'/m'm'm"
_space_group_magn.point_group_number_Litvin "15.5.57"
_space_group_magn.point_group_name_UNI "4'/m'm'm"

loop_
_space_group_magn_transforms.id
_space_group_magn_transforms.Pp_abc
_space_group_magn_transforms.source
1 a,b,c;0,0,0 "BNS"
2 a,b,c;0,0,0 "OG"

loop_
_space_group_symop_magn_operation.id
_space_group_symop_magn_operation.xyz
1 x,y,z,+1 
2 x,-y,-z,+1 
3 -x,y,-z,+1 
4 -x,-y,z,+1 
5 y,x,z,+1 
6 y,-x,-z,+1 
7 -y,x,-z,+1 
8 -y,-x,z,+1 
9 -y,-x,-z,-1 
10 -y,x,z,-1 
11 y,-x,z,-1 
12 y,x,-z,-1 
13 -x,-y,-z,-1 
14 -x,y,z,-1 
15 x,-y,z,-1 
16 x,y,-z,-1 

loop_
_space_group_symop_magn_centering.id
_space_group_symop_magn_centering.xyz
1 x,y,z,+1 
2 x+1/2,y+1/2,z+1/2,+1 

loop_
_atom_site_label
_atom_site_type_symbol
_atom_site_symmetry_multiplicity
_atom_site_Wyckoff_symbol
_atom_site_fract_x
_atom_site_fract_y
_atom_site_fract_z
_atom_site_occupancy
_atom_site_fract_symmform
Eu1 Eu   4 e  0.00000  0.00000  0.11479  1.00000 0,0,Dz 
Mn1 Mn   4 d  0.00000  0.50000  0.25000  1.00000 0,0,0  
Bi1 Bi   4 c  0.00000  0.50000  0.00000  1.00000 0,0,0  
Bi2 Bi   4 e  0.00000  0.00000  0.32872  1.00000 0,0,Dz 

loop_
_atom_site_moment.label
_atom_site_moment.crystalaxis_x
_atom_site_moment.crystalaxis_y
_atom_site_moment.crystalaxis_z
_atom_site_moment.symmform
Mn1  0.00000  0.00000  1.00000 0,0,Mz 

# end of cif
