
#======================================================================
# CRYSTAL DATA
#----------------------------------------------------------------------
data_VESTA_phase_1

_chemical_name_common                  'POSCAR_SrMn2Bi2_22supercell'
_cell_length_a                         9.657300
_cell_length_b                         9.657300
_cell_length_c                         25.000000
_cell_angle_alpha                      90.000000
_cell_angle_beta                       90.000000
_cell_angle_gamma                      120.000000
_cell_volume                           2019.212776
_space_group_name_H-M_alt              'P 1'
_space_group_IT_number                 1

loop_
_space_group_symop_operation_xyz
   'x, y, z'

loop_
   _atom_site_label
   _atom_site_occupancy
   _atom_site_fract_x
   _atom_site_fract_y
   _atom_site_fract_z
   _atom_site_adp_type
   _atom_site_U_iso_or_equiv
   _atom_site_type_symbol
   Mn1        1.0     0.333330     0.166670     0.608130    Uiso  ? Mn
   Mn2        1.0     0.166670     0.333330     0.391870    Uiso  ? Mn
   Mn3        1.0     0.833330     0.166670     0.608130    Uiso  ? Mn
   Mn4        1.0     0.666670     0.333330     0.391870    Uiso  ? Mn
   Mn5        1.0     0.333330     0.666670     0.608130    Uiso  ? Mn
   Mn6        1.0     0.166670     0.833330     0.391870    Uiso  ? Mn
   Mn7        1.0     0.833330     0.666670     0.608130    Uiso  ? Mn
   Mn8        1.0     0.666670     0.833330     0.391870    Uiso  ? Mn
   Bi1        1.0     0.333330     0.166670     0.412660    Uiso  ? Bi
   Bi2        1.0     0.166670     0.333330     0.587340    Uiso  ? Bi
   Bi3        1.0     0.833330     0.166670     0.412660    Uiso  ? Bi
   Bi4        1.0     0.666670     0.333330     0.587340    Uiso  ? Bi
   Bi5        1.0     0.333330     0.666670     0.412660    Uiso  ? Bi
   Bi6        1.0     0.166670     0.833330     0.587340    Uiso  ? Bi
   Bi7        1.0     0.833330     0.666670     0.412660    Uiso  ? Bi
   Bi8        1.0     0.666670     0.833330     0.587340    Uiso  ? Bi
   Sr1        1.0     0.000000     0.000000     0.500000    Uiso  ? Sr
   Sr2        1.0     0.500000     0.000000     0.500000    Uiso  ? Sr
   Sr3        1.0     0.000000     0.500000     0.500000    Uiso  ? Sr
   Sr4        1.0     0.500000     0.500000     0.500000    Uiso  ? Sr
