
#======================================================================
# CRYSTAL DATA
#----------------------------------------------------------------------
data_VESTA_phase_1

_chemical_name_common                  'CrI3_22supercell'
_cell_length_a                         11.278300
_cell_length_b                         11.278300
_cell_length_c                         20.000000
_cell_angle_alpha                      90.000000
_cell_angle_beta                       90.000000
_cell_angle_gamma                      120.000000
_cell_volume                           2203.169620
_space_group_name_H-M_alt              'P 1'
_space_group_IT_number                 1

loop_
_space_group_symop_operation_xyz
   'x, y, z'

loop_
   _atom_site_label
   _atom_site_occupancy
   _atom_site_fract_x
   _atom_site_fract_y
   _atom_site_fract_z
   _atom_site_adp_type
   _atom_site_U_iso_or_equiv
   _atom_site_type_symbol
   I1         1.0     0.250000     0.000000     0.441510    Uiso  ? I
   I2         1.0     0.000000     0.250000     0.441510    Uiso  ? I
   I3         1.0     0.250000     0.250000     0.441510    Uiso  ? I
   I4         1.0     0.000000     0.250000     0.558490    Uiso  ? I
   I5         1.0     0.250000     0.000000     0.558490    Uiso  ? I
   I6         1.0     0.250000     0.250000     0.558490    Uiso  ? I
   I7         1.0     0.750000     0.000000     0.441510    Uiso  ? I
   I8         1.0     0.500000     0.250000     0.441510    Uiso  ? I
   I9         1.0     0.750000     0.250000     0.441510    Uiso  ? I
   I10        1.0     0.500000     0.250000     0.558490    Uiso  ? I
   I11        1.0     0.750000     0.000000     0.558490    Uiso  ? I
   I12        1.0     0.750000     0.250000     0.558490    Uiso  ? I
   I13        1.0     0.250000     0.500000     0.441510    Uiso  ? I
   I14        1.0     0.000000     0.750000     0.441510    Uiso  ? I
   I15        1.0     0.250000     0.750000     0.441510    Uiso  ? I
   I16        1.0     0.000000     0.750000     0.558490    Uiso  ? I
   I17        1.0     0.250000     0.500000     0.558490    Uiso  ? I
   I18        1.0     0.250000     0.750000     0.558490    Uiso  ? I
   I19        1.0     0.750000     0.500000     0.441510    Uiso  ? I
   I20        1.0     0.500000     0.750000     0.441510    Uiso  ? I
   I21        1.0     0.750000     0.750000     0.441510    Uiso  ? I
   I22        1.0     0.500000     0.750000     0.558490    Uiso  ? I
   I23        1.0     0.750000     0.500000     0.558490    Uiso  ? I
   I24        1.0     0.750000     0.750000     0.558490    Uiso  ? I
   Cr1        1.0     0.166670     0.333330     0.500000    Uiso  ? Cr
   Cr2        1.0     0.333330     0.166670     0.500000    Uiso  ? Cr
   Cr3        1.0     0.666670     0.333330     0.500000    Uiso  ? Cr
   Cr4        1.0     0.833330     0.166670     0.500000    Uiso  ? Cr
   Cr5        1.0     0.166670     0.833330     0.500000    Uiso  ? Cr
   Cr6        1.0     0.333330     0.666670     0.500000    Uiso  ? Cr
   Cr7        1.0     0.666670     0.833330     0.500000    Uiso  ? Cr
   Cr8        1.0     0.833330     0.666670     0.500000    Uiso  ? Cr
