
#======================================================================
# CRYSTAL DATA
#----------------------------------------------------------------------
data_VESTA_phase_1

_chemical_name_common                  'CrI3bulk'
_cell_length_a                         6.968500
_cell_length_b                         6.968500
_cell_length_c                         20.755899
_cell_angle_alpha                      90.000000
_cell_angle_beta                       90.000000
_cell_angle_gamma                      120.000000
_cell_volume                           872.872508
_space_group_name_H-M_alt              'P 1'
_space_group_IT_number                 1

loop_
_space_group_symop_operation_xyz
   'x, y, z'

loop_
   _atom_site_label
   _atom_site_occupancy
   _atom_site_fract_x
   _atom_site_fract_y
   _atom_site_fract_z
   _atom_site_adp_type
   _atom_site_U_iso_or_equiv
   _atom_site_type_symbol
   Cr1        1.0     0.333333     0.666667     0.500000    Uiso  ? Cr
   Cr2        1.0     0.666667     0.333333     0.500000    Uiso  ? Cr
   I1         1.0     0.355800     0.000000     0.424630    Uiso  ? I
   I2         1.0     0.644200     0.000000     0.575370    Uiso  ? I
   I3         1.0     0.000000     0.355800     0.424630    Uiso  ? I
   I4         1.0     0.000000     0.644200     0.575370    Uiso  ? I
   I5         1.0     0.644200     0.644200     0.424630    Uiso  ? I
   I6         1.0     0.355800     0.355800     0.575370    Uiso  ? I
