
#======================================================================
# CRYSTAL DATA
#----------------------------------------------------------------------
data_VESTA_phase_1

_chemical_name_common                  'nairo'
_cell_length_a                         5.427000
_cell_length_b                         9.395000
_cell_length_c                         5.614000
_cell_angle_alpha                      90.000000
_cell_angle_beta                       109.037003
_cell_angle_gamma                      90.000000
_cell_volume                           270.584189
_space_group_name_H-M_alt              'P 1'
_space_group_IT_number                 1

loop_
_space_group_symop_operation_xyz
   'x, y, z'

loop_
   _atom_site_label
   _atom_site_occupancy
   _atom_site_fract_x
   _atom_site_fract_y
   _atom_site_fract_z
   _atom_site_adp_type
   _atom_site_U_iso_or_equiv
   _atom_site_type_symbol
   Ir1        1.0     0.500000     0.167000     0.000000    Uiso  ? Ir
   Ir2        1.0     0.500000     0.833000     0.000000    Uiso  ? Ir
   Ir3        1.0     0.000000     0.667000     0.000000    Uiso  ? Ir
   Ir4        1.0     0.000000     0.333000     0.000000    Uiso  ? Ir
