
#======================================================================
# CRYSTAL DATA
#----------------------------------------------------------------------
data_VESTA_phase_1

_chemical_name_common                  'ymn6sn62layers                        '
_cell_length_a                         5.541000
_cell_length_b                         5.541000
_cell_length_c                         18.070000
_cell_angle_alpha                      90.000000
_cell_angle_beta                       90.000000
_cell_angle_gamma                      120.000000
_cell_volume                           480.468655
_space_group_name_H-M_alt              'P 1'
_space_group_IT_number                 1

loop_
_space_group_symop_operation_xyz
   'x, y, z'

loop_
   _atom_site_label
   _atom_site_occupancy
   _atom_site_fract_x
   _atom_site_fract_y
   _atom_site_fract_z
   _atom_site_adp_type
   _atom_site_U_iso_or_equiv
   _atom_site_type_symbol
   Y1         1.0     -0.000000     -0.000000     -0.000000    Uiso  ? Y
   Y2         1.0     -0.000000     -0.000000     0.500000    Uiso  ? Y
   Mn1        1.0     -0.000000     0.500000     0.375735    Uiso  ? Mn
   Mn2        1.0     0.500000     0.500000     0.124265    Uiso  ? Mn
   Mn3        1.0     -0.000000     0.500000     0.124265    Uiso  ? Mn
   Mn4        1.0     0.500000     -0.000000     0.124265    Uiso  ? Mn
   Mn5        1.0     0.500000     0.000000     0.375735    Uiso  ? Mn
   Mn6        1.0     0.500000     0.500000     0.375735    Uiso  ? Mn
   Mn7        1.0     -0.000000     0.500000     0.875735    Uiso  ? Mn
   Mn8        1.0     0.500000     0.500000     0.624265    Uiso  ? Mn
   Mn9        1.0     -0.000000     0.500000     0.624265    Uiso  ? Mn
   Mn10       1.0     0.500000     -0.000000     0.624265    Uiso  ? Mn
   Mn11       1.0     0.500000     0.000000     0.875735    Uiso  ? Mn
   Mn12       1.0     0.500000     0.500000     0.875735    Uiso  ? Mn
   Sn1        1.0     0.666669     0.333331     0.250000    Uiso  ? Sn
   Sn2        1.0     0.333331     0.666669     0.250000    Uiso  ? Sn
   Sn3        1.0     0.666669     0.333331     -0.000000    Uiso  ? Sn
   Sn4        1.0     0.333331     0.666669     -0.000000    Uiso  ? Sn
   Sn5        1.0     -0.000000     0.000000     0.166849    Uiso  ? Sn
   Sn6        1.0     -0.000000     -0.000000     0.333151    Uiso  ? Sn
   Sn7        1.0     0.666669     0.333331     0.750000    Uiso  ? Sn
   Sn8        1.0     0.333331     0.666669     0.750000    Uiso  ? Sn
   Sn9        1.0     0.666669     0.333331     0.500000    Uiso  ? Sn
   Sn10       1.0     0.333331     0.666669     0.500000    Uiso  ? Sn
   Sn11       1.0     -0.000000     0.000000     0.666849    Uiso  ? Sn
   Sn12       1.0     -0.000000     -0.000000     0.833151    Uiso  ? Sn
